test/data/matpower/case3_SPM.m
% Case to test adding data to matpower file
% tests refrence bus detection
% tests basic ac and hvdc modeling
% tests when gencost is present but not dclinecost
% quadratic objective function

function mpc = case3
mpc.version = '2';
mpc.baseMVA = 100.0;
mpc.bus = [
	1	 3	 110.0	 40.0	 0.0	 0.0	 1	    1.10000	   -0.00000	 240.0	 1	    1.10000	    0.90000;
	2	 2	 110.0	 40.0	 0.0	 0.0	 1	    0.92617	    7.25883	 240.0	 1	    1.10000	    0.90000;
	3	 2	 95.0	 50.0	 0.0	 0.0	 1	    0.90000	  -17.26710	 240.0	 2	    1.10000	    0.90000;
];

mpc.gen = [
	1	 158.067	 28.79	 1000.0	 -1000.0	 1.1	 100.0	 1	 2000.0	 0.0;
	2	 160.006	-4.63	 1000.0	 -1000.0	 0.92617	 100.0	 1	 1500.0	 0.0;
	3	 0.0	 -4.843	 1000.0	 -1000.0	 0.9	 100.0	 1	 0.0	 0.0;
];

mpc.gencost = [
	2	 0.0	 0.0	 3	   0.110000	   5.000000	   0.000000;
	2	 0.0	 0.0	 3	   0.085000	   1.200000	   0.000000;
	%2	 0.0	 0.0	 3	   0.085000	   1.200000	   0.000000; %new line
	2	 0.0	 0.0	 3	   0.000000	   0.000000	   0.000000;
];

mpc.branch = [
	1	 3	 0.065	 0.62	 0.45	 9000.0	 0.0	 0.0	 0.0	 0.0	 1	 -30.0	 30.0;
	3	 2	 0.025	 0.75	 0.7	 50.0	 0.0	 0.0	 0.0	 0.0	 1	 -30.0	 30.0;
	1	 2	 0.042	 0.9	 0.3	 9000.0	 0.0	 0.0	 0.0	 0.0	 1	 -30.0	 30.0;
];



% matpower data format extentions

% adding single values
mpc.const_int = 123;
mpc.const_float = 4.56
mpc.const_str = 'a string';


% adding extra matrix values

% generic table, comes in a matrix
mpc.areas = [
	1	1;
	2	3;
];

% named column table
%column_names%	area	refbus
mpc.areas_named = [
	4	5;
	5	6;
];

% add two new columns to "branch" matrix
%column_names%	rate_i	rate_p λimax imax
mpc.branch_limit = [
	50.2	45 1.6 40;
	36	60.1	1.6 50;
	12	30	1.6 	25;
];


% adding extra cell values

mpc.areas_cells = {
	'Area 1'	123	987	'Slack \"Bus\" 1'	1.23	;
	'Area 2'	456	987	'Slack Bus 3'	4.56	;
};

%column_names%	area_name	area	area2	refbus_name	refbus
mpc.areas_named_cells = {
	'Area 1'	123  987	'Slack Bus 1'	1.23;
	'Area 2'	456  987	'Slack Bus 3'	4.56;
};

%column_names%	name	number_id 
mpc.branch_names = {
	'Branch 1'	123;
	'Branch 2'	456;
	'Branch 3'	789;
};


%column_names% number string λvmin λvmax
mpc.bus_data = {
	 1	'FAV SPOT 02'    1.6    1.6;
	 2	'FAV PLACE 05'   1.6    1.6;
	 3	'FAV PLC 08'     1.6    1.6;
};


%column_names% extra 
mpc.load_data = {
	100
	101
	102
};

%column_names% string number 
mpc.component = {
	'temp'	1000.0
};

%column_names% distribution deg Nrec Beta alpha beta load pd_unc qd_unc
mpc.dist = {
    'Uniform01OrthoPoly'    1   5       0   0   0       1   1    1
    'Uniform01OrthoPoly'    1   5       0   0   0       2   1    1
    'Uniform01OrthoPoly'    1   5       0   0   0       3   1    1
	'Beta01OrthoPoly'		1	5		1	4	3		3	2	 2
};

%column_names% λpmin λpmax λqmin λqmax
mpc.gen_extra = [
	1.6	 1.6	 1.6	 2.5;	
	1.6	 1.6	 1.6	 2.5;
	1.6	 1.6	 1.6	 2.5;
];



